
**** 11/10/20 13:31:04 ******* PSpice 17.4.0 (Nov 2018) ******* ID# 0 ********

 ** Profile: "SCHEMATIC1-test"  [ C:\Users\izbea\Desktop\test\test-PSpiceFiles\SCHEMATIC1\test.sim ] 


 ****     CIRCUIT DESCRIPTION


******************************************************************************




** Creating circuit file "test.cir" 
** WARNING: THIS AUTOMATICALLY GENERATED FILE MAY BE OVERWRITTEN BY SUBSEQUENT SIMULATIONS

*Libraries: 
* Profile Libraries :
* Local Libraries :
* From [PSPICE NETLIST] section of C:\SPB_DATA\cdssetup\OrCAD_PSpice\17.4.0\PSpice.ini file:
.lib "nom.lib" 

*Analysis directives: 
.AC DEC 1000 0 100
-------------$
ERROR(ORPSIM-16103): Invalid value
.OPTIONS ADVCONV
.PROBE64 V(alias(*)) I(alias(*)) W(alias(*)) D(alias(*)) NOISE(alias(*)) 
.INC "..\SCHEMATIC1.net" 



**** INCLUDING SCHEMATIC1.net ****
* source TEST
R_R1         N01259 N01282  1k TC=0,0 
R_R2         N01409 N01259  1k TC=0,0 
R_R4         0 N01282  1k TC=0,0 
E_U1         N01282 0 VALUE {LIMIT(V(0,N01259)*1E6,-15V,+15V)}
D_D1         N01259 N01282 DLA3622-99/-55C 
V_V1         N01409 0 DC 0V AC 15V 

**** RESUMING test.cir ****
.END
