
**** 11/23/20 07:09:28 ******* PSpice 17.4.0 (Nov 2018) ******* ID# 0 ********

 ** Profile: "SCHEMATIC1-bias"  [ C:\Users\izbea\Desktop\2ndExam\서울\Orcad\서울20기출\21-12-pspicefiles\schematic1\bias.sim ] 


 ****     CIRCUIT DESCRIPTION


******************************************************************************




** Creating circuit file "bias.cir" 
** WARNING: THIS AUTOMATICALLY GENERATED FILE MAY BE OVERWRITTEN BY SUBSEQUENT SIMULATIONS

*Libraries: 
* Profile Libraries :
.INC "C:\Users\izbea\Desktop\2ndExam\\Orcad\20\21-12-pspicefiles\schematic1\bias\bias_profile.inc" 
* Local Libraries :
* From [PSPICE NETLIST] section of C:\SPB_DATA\cdssetup\OrCAD_PSpice\17.4.0\PSpice.ini file:

ERROR(ORPSIM-15347): Cannot open input file C:\Users\izbea\Desktop\2ndExam\Orcad\20\21-12-pspicefiles\schematic1\bias\bias_profile.inc.


ABORTING SIMULATION
**** 11/23/20 07:09:28 ******* PSpice 17.4.0 (Nov 2018) ******* ID# 0 ********

 ** Profile: "SCHEMATIC1-bias"  [ C:\Users\izbea\Desktop\2ndExam\서울\Orcad\서울20기출\21-12-pspicefiles\schematic1\bias.sim ] 


 ****     JOB STATISTICS SUMMARY


******************************************************************************



Node counts:
  Top level (NUNODS)                =           1
  External (NCNODS)                 =           1
  Total (NUMNOD)                    =           0

Total device count (NUMEL)          =           0

Number of subcircuits (X)           =           0

Analysis statistics:
  No. total time points (NUMTTP)    =           0
  No. rejected time points (NUMRTP) =           0
  No. iterations (NUMNIT)           =           0

Load Threads                        =           1

Runtime statistics:                       Seconds      Iterations
  Readin                            =        0.00
  General setup                     =        0.00
  CMI setup                     =        0.00
  Setup                             =        0.00
  DC sweep                          =        0.00               0
  Bias point                        =        0.00               0
  AC and noise                      =        0.00               0
  Total transient analysis          =        0.00
  Output                            =        0.00
  Overhead                          =         .11
  License check-out time            =         .89
  Total job time                    =        0.00
