
**** 11/10/20 15:30:04 ******* PSpice 17.4.0 (Nov 2018) ******* ID# 0 ********

 ** Profile: "SCHEMATIC1-bias"  [ C:\Users\izbea\Desktop\test\digital-pspicefiles\schematic1\bias.sim ] 


 ****     CIRCUIT DESCRIPTION


******************************************************************************




** Creating circuit file "bias.cir" 
** WARNING: THIS AUTOMATICALLY GENERATED FILE MAY BE OVERWRITTEN BY SUBSEQUENT SIMULATIONS

*Libraries: 
* Profile Libraries :
.INC "C:\Users\izbea\Desktop\test\digital-pspicefiles\schematic1\bias\bias_profile.inc" 
* Local Libraries :
* From [PSPICE NETLIST] section of C:\SPB_DATA\cdssetup\OrCAD_PSpice\17.4.0\PSpice.ini file:

**** INCLUDING bias_profile.inc ****
.STMLIB ".\bias.stl" 

**** RESUMING bias.cir ****
.lib "nom.lib" 

*Analysis directives: 
.TRAN  0 10s 0 
.OPTIONS ADVCONV
.OPTIONS DIGINITSTATE= 0
.PROBE64 V(alias(*)) I(alias(*)) W(alias(*)) D(alias(*)) NOISE(alias(*)) 
.INC "..\SCHEMATIC1.net" 



**** INCLUDING SCHEMATIC1.net ****
* source DIGITAL
X_U1A         N14968 N15184 N15209 N15067 N15122 N15184 $G_DPWR $G_DGND 7474
+  PARAMS:
+ IO_LEVEL=0 MNTYMXDLY=0
X_U1B         N14972 N15134 N15122 N15079 N15110 N15134 $G_DPWR $G_DGND 7474
+  PARAMS:
+ IO_LEVEL=0 MNTYMXDLY=0
X_U2A         N14976 N15159 N15110 N15091 N15103 N15159 $G_DPWR $G_DGND 7474
+  PARAMS:
+ IO_LEVEL=0 MNTYMXDLY=0
X_U7A         $D_HI N14980 $G_DPWR $G_DGND 7404 PARAMS:
+ IO_LEVEL=0 MNTYMXDLY=0
X_U7B         $D_LO N14984 $G_DPWR $G_DGND 7404 PARAMS:
+ IO_LEVEL=0 MNTYMXDLY=0
X_U7C         $D_HI N14988 $G_DPWR $G_DGND 7404 PARAMS:
+ IO_LEVEL=0 MNTYMXDLY=0
X_U8A         N15209 N15122 N15110 N15103 N14992 $G_DPWR $G_DGND 74HCT4002
+  PARAMS:
+ IO_LEVEL=0 MNTYMXDLY=0
U_DSTM1         STIM(1,0) $G_DPWR $G_DGND N15209 IO_STM STIMULUS=ln
X_U9A         N14992 N14980 N14968 $G_DPWR $G_DGND 7408 PARAMS:
+ IO_LEVEL=0 MNTYMXDLY=0
X_U9B         N14992 $D_HI N15067 $G_DPWR $G_DGND 7408 PARAMS:
+ IO_LEVEL=0 MNTYMXDLY=0
X_U9C         N14992 N14984 N14972 $G_DPWR $G_DGND 7408 PARAMS:
+ IO_LEVEL=0 MNTYMXDLY=0
X_U9D         N14992 $D_LO N15079 $G_DPWR $G_DGND 7408 PARAMS:
+ IO_LEVEL=0 MNTYMXDLY=0
X_U10A         N14992 N14988 N14976 $G_DPWR $G_DGND 7408 PARAMS:
+ IO_LEVEL=0 MNTYMXDLY=0
X_U10B         N14992 $D_HI N15091 $G_DPWR $G_DGND 7408 PARAMS:
+ IO_LEVEL=0 MNTYMXDLY=0

**** RESUMING bias.cir ****
.END

* C:\Users\izbea\Desktop\test\DIGITAL-PSpiceFiles\SCHEMATIC1\bias\bias.stl written on Tue Nov 10 14:49:19 2020
* by Stimulus Editor -- Serial Number: 1029007220 -- Version 17.4.0
;!Stimulus Get
;! ln Digital
;!Ok
;!Plot Axis_Settings
;!Xrange 0s 80ms
;!AutoUniverse
;!XminRes 1ns
;!YminRes 1n
;!Ok
.STIMULUS ln STIM (1, 1) ;! CLOCKP 20ms 10ms 0 0
+   +0s 0
+   +10ms 1
+   Repeat Forever
+      +10ms 0
+      +10ms 1
+   EndRepeat

**** 11/10/20 15:30:04 ******* PSpice 17.4.0 (Nov 2018) ******* ID# 0 ********

 ** Profile: "SCHEMATIC1-bias"  [ C:\Users\izbea\Desktop\test\digital-pspicefiles\schematic1\bias.sim ] 


 ****     Digital Gate MODEL PARAMETERS


******************************************************************************




               D_04            D_08            D_HCT4002       
      TPLHMN    4.800000E-09    7.000000E-09    5.500000E-09 
      TPLHTY   12.000000E-09   17.500000E-09   13.750000E-09 
      TPLHMX   22.000000E-09   27.000000E-09   22.000000E-09 
      TPHLMN    3.200000E-09    4.800000E-09    7.250000E-09 
      TPHLTY    8.000000E-09   12.000000E-09   18.125000E-09 
      TPHLMX   15.000000E-09   19.000000E-09   29.000000E-09 


**** 11/10/20 15:30:04 ******* PSpice 17.4.0 (Nov 2018) ******* ID# 0 ********

 ** Profile: "SCHEMATIC1-bias"  [ C:\Users\izbea\Desktop\test\digital-pspicefiles\schematic1\bias.sim ] 


 ****     Digital Edge Triggered FF MODEL PARAMETERS


******************************************************************************




               D_74            
  TPCLKQLHMN    5.600000E-09 
  TPCLKQLHTY   14.000000E-09 
  TPCLKQLHMX   25.000000E-09 
  TPCLKQHLMN    8.000000E-09 
  TPCLKQHLTY   20.000000E-09 
  TPCLKQHLMX   40.000000E-09 
   TPPCQLHMN    6.250000E-09 
   TPPCQLHTY   15.625000E-09 
   TPPCQLHMX   25.000000E-09 
   TPPCQHLMN   10.000000E-09 
   TPPCQHLTY   25.000000E-09 
   TPPCQHLMX   40.000000E-09 
    TWCLKLMN   37.000000E-09 
    TWCLKLTY   37.000000E-09 
    TWCLKLMX   37.000000E-09 
    TWCLKHMN   30.000000E-09 
    TWCLKHTY   30.000000E-09 
    TWCLKHMX   30.000000E-09 
     TWPCLMN   30.000000E-09 
     TWPCLTY   30.000000E-09 
     TWPCLMX   30.000000E-09 
   TSUDCLKMN   20.000000E-09 
   TSUDCLKTY   20.000000E-09 
   TSUDCLKMX   20.000000E-09 
 TSUPCCLKHMN    0            
 TSUPCCLKHTY    0            
 TSUPCCLKHMX    0            
    THDCLKMN    5.000000E-09 
    THDCLKTY    5.000000E-09 
    THDCLKMX    5.000000E-09 
  TSUCECLKMN    0            
  TSUCECLKTY    0            
  TSUCECLKMX    0            
   THCECLKMN    0            
   THCECLKTY    0            
   THCECLKMX    0            


**** 11/10/20 15:30:04 ******* PSpice 17.4.0 (Nov 2018) ******* ID# 0 ********

 ** Profile: "SCHEMATIC1-bias"  [ C:\Users\izbea\Desktop\test\digital-pspicefiles\schematic1\bias.sim ] 


 ****     Digital IO  MODEL PARAMETERS


******************************************************************************




               IO_STM          IO_STD          IO_HCT          
        DRVL    0             104              87            
        DRVH    0              96.4            87            
       AtoD1                 AtoD_STD        AtoD_HCT        
       AtoD2                 AtoD_STD_NX     AtoD_HCT_NX     
       AtoD3                 AtoD_STD        AtoD_HCT        
       AtoD4                 AtoD_STD_NX     AtoD_HCT_NX     
       DtoA1 DtoA_STM        DtoA_STD        DtoA_HC         
       DtoA2 DtoA_STM        DtoA_STD        DtoA_HC         
       DtoA3 DtoA_STM        DtoA_STD        DtoA_HC         
       DtoA4 DtoA_STM        DtoA_STD        DtoA_HC         
      TSWHL1                    1.511000E-09    2.742000E-09 
      TSWHL2                    1.487000E-09    2.742000E-09 
      TSWHL3                    1.511000E-09    2.742000E-09 
      TSWHL4                    1.487000E-09    2.742000E-09 
      TSWLH1                    3.517000E-09    2.758000E-09 
      TSWLH2                    3.564000E-09    2.758000E-09 
      TSWLH3                    3.517000E-09    2.758000E-09 
      TSWLH4                    3.564000E-09    2.758000E-09 
       TPWRT  100.000000E+03  100.000000E+03    3.500000E-09 



          JOB CONCLUDED

**** 11/10/20 15:30:04 ******* PSpice 17.4.0 (Nov 2018) ******* ID# 0 ********

 ** Profile: "SCHEMATIC1-bias"  [ C:\Users\izbea\Desktop\test\digital-pspicefiles\schematic1\bias.sim ] 


 ****     JOB STATISTICS SUMMARY


******************************************************************************



  License check-out time            =        2.16
  Total job time                    =         .05
